REMARK  4 active torsions:
REMARK  status: ('A' for Active; 'I' for Inactive)
REMARK    1  A    between atoms: C_2  and  C_4 
REMARK    2  A    between atoms: C_4  and  C_5 
REMARK    3  A    between atoms: C_8  and  C_11 
REMARK    4  A    between atoms: C_11  and  C_13 
ROOT
ATOM      1  C   UNK     1       2.962   3.812   0.293  1.00  0.00     0.010 C 
ATOM      2  C   UNK     1       2.288   2.486  -0.086  1.00  0.00    -0.019 C 
ATOM      3  C   UNK     1       2.389   2.255  -1.602  1.00  0.00     0.010 C 
ENDROOT
BRANCH   2   4
ATOM      4  C   UNK     1       0.830   2.457   0.422  1.00  0.00     0.042 C 
BRANCH   4   5
ATOM      5  C   UNK     1       0.171   1.112   0.225  1.00  0.00    -0.058 A 
ATOM      6  C   UNK     1       0.337   0.095   1.183  1.00  0.00     0.007 A 
ATOM      7  C   UNK     1      -0.338  -1.128   1.052  1.00  0.00     0.008 A 
ATOM      8  C   UNK     1      -1.224  -1.353  -0.029  1.00  0.00    -0.044 A 
ATOM      9  C   UNK     1      -1.416  -0.310  -0.960  1.00  0.00     0.008 A 
ATOM     10  C   UNK     1      -0.739   0.911  -0.829  1.00  0.00     0.007 A 
BRANCH   8  11
ATOM     11  C   UNK     1      -1.976  -2.667  -0.248  1.00  0.00     0.115 C 
ATOM     12  C   UNK     1      -1.668  -3.781   0.767  1.00  0.00     0.026 C 
BRANCH  11  13
ATOM     13  C   UNK     1      -3.473  -2.434  -0.260  1.00  0.00     0.181 C 
ATOM     14  O   UNK     1      -4.056  -2.019   0.737  1.00  0.00    -0.647 OA
ATOM     15  O   UNK     1      -4.123  -2.664  -1.275  1.00  0.00    -0.647 OA
ENDBRANCH  11  13
ENDBRANCH   8  11
ENDBRANCH   4   5
ENDBRANCH   2   4
TORSDOF 4
