REMARK  3 active torsions:
REMARK  status: ('A' for Active; 'I' for Inactive)
REMARK    1  A    between atoms: C7_2  and  C1_4 
REMARK    2  A    between atoms: C2_9  and  N_10 
REMARK    3  A    between atoms: N_10  and  C1B_11 
ROOT
HETATM    1  OXT JMS A 602      24.469  51.205  19.448  1.00 32.12    -0.644 OA
HETATM    2  C7  JMS A 602      24.662  50.209  18.706  1.00 33.97     0.211 C 
HETATM    3  OH  JMS A 602      25.764  49.609  18.746  1.00 32.97    -0.644 OA
ENDROOT
BRANCH   2   4
HETATM    4  C1  JMS A 602      23.558  49.727  17.789  1.00 40.30     0.067 A 
HETATM    5  C2  JMS A 602      22.520  50.584  17.432  1.00 36.21     0.049 A 
HETATM    6  C3  JMS A 602      21.511  50.110  16.608  1.00 37.85     0.030 A 
HETATM    7  C4  JMS A 602      21.546  48.807  16.133  1.00 37.64     0.002 A 
HETATM    8  C5  JMS A 602      22.581  47.959  16.495  1.00 37.87     0.001 A 
HETATM    9  C6  JMS A 602      23.587  48.418  17.325  1.00 37.21     0.021 A 
BRANCH   5  10
HETATM   10  N   JMS A 602      22.532  51.922  17.930  1.00 36.43    -0.353 N 
HETATM   11  H6  JMS A 602      23.055  52.081  18.660  1.00 43.96     0.166 HD
BRANCH  10  12
HETATM   12  C1B JMS A 602      21.527  52.897  17.643  1.00 44.92     0.077 A 
HETATM   13  C2B JMS A 602      20.909  53.498  18.731  1.00 45.21     0.068 A 
HETATM   14  C3B JMS A 602      19.934  54.463  18.555  1.00 45.84    -0.038 A 
HETATM   15 CL1  JMS A 602      21.357  53.034  20.347  1.00 41.53    -0.081 Cl
HETATM   16  C7B JMS A 602      19.271  55.089  19.764  1.00 44.56     0.050 C 
HETATM   17  C4B JMS A 602      19.569  54.847  17.277  1.00 45.52     0.010 A 
HETATM   18  C5B JMS A 602      20.184  54.264  16.182  1.00 44.20     0.027 A 
HETATM   19  C6B JMS A 602      21.164  53.299  16.354  1.00 46.77     0.062 A 
HETATM   20 CL2  JMS A 602      21.894  52.617  14.923  1.00 56.18    -0.082 Cl
ENDBRANCH  10  12
ENDBRANCH   5  10
ENDBRANCH   2   4
TORSDOF 3
