REMARK  10 active torsions:
REMARK  status: ('A' for Active; 'I' for Inactive)
REMARK    1  A    between atoms: C_4  and  C_5 
REMARK    2  A    between atoms: C_6  and  C_7 
REMARK    3  A    between atoms: C_7  and  O_8 
REMARK    4  A    between atoms: O_8  and  C_9 
REMARK    5  A    between atoms: C_11  and  C_12 
REMARK    6  A    between atoms: C_12  and  O_13 
REMARK    7  A    between atoms: C_14  and  O_15 
REMARK    8  A    between atoms: C_16  and  O_17 
REMARK    9  A    between atoms: C_18  and  O_19 
REMARK   10  A    between atoms: C_25  and  O_26 
ROOT
ATOM      1  O   UNK     1       1.530   3.804   1.240  1.00  0.00    -0.290 OA
ATOM      2  C   UNK     1       0.428   3.451   0.827  1.00  0.00     0.184 C 
ATOM      3  C   UNK     1       0.339   2.531  -0.361  1.00  0.00    -0.006 C 
ATOM      4  C   UNK     1      -0.874   2.012  -0.752  1.00  0.00    -0.041 C 
ATOM      5  C   UNK     1      -2.179   2.427  -0.029  1.00  0.00    -0.017 C 
ATOM      6  C   UNK     1      -2.471   1.471   1.151  1.00  0.00     0.020 C 
ATOM      7  C   UNK     1      -3.402   2.422  -0.979  1.00  0.00     0.020 C 
ATOM      8  C   UNK     1      -2.031   3.880   0.504  1.00  0.00     0.053 C 
ATOM      9  C   UNK     1      -0.821   4.057   1.426  1.00  0.00     0.193 C 
ATOM     10  C   UNK     1       1.633   2.147  -1.062  1.00  0.00     0.052 C 
ENDROOT
BRANCH   9  11
ATOM     11  O   UNK     1      -0.649   5.466   1.692  1.00  0.00    -0.388 OA
ATOM     12  H   UNK     1       0.335   5.562   1.999  1.00  0.00     0.210 HD
ENDBRANCH   9  11
BRANCH   4  13
ATOM     13  C   UNK     1      -0.927   1.216  -2.024  1.00  0.00     0.007 C 
ATOM     14  C   UNK     1      -1.028  -0.119  -2.214  1.00  0.00     0.005 C 
BRANCH  14  15
ATOM     15  C   UNK     1      -1.062  -1.206  -1.160  1.00  0.00     0.143 C 
ATOM     16  C   UNK     1      -2.493  -1.737  -1.040  1.00  0.00     0.044 C 
BRANCH  15  17
ATOM     17  O   UNK     1      -0.573  -0.756   0.138  1.00  0.00    -0.350 OA
BRANCH  17  18
ATOM     18  C   UNK     1       0.739  -1.249   0.544  1.00  0.00     0.292 C 
ATOM     19  O   UNK     1       1.643  -1.422  -0.591  1.00  0.00    -0.348 OA
ATOM     20  C   UNK     1       3.015  -1.795  -0.235  1.00  0.00     0.179 C 
ATOM     21  C   UNK     1       3.139  -2.623   1.072  1.00  0.00     0.180 C 
ATOM     22  C   UNK     1       1.865  -3.443   1.300  1.00  0.00     0.183 C 
ATOM     23  C   UNK     1       0.636  -2.520   1.435  1.00  0.00     0.204 C 
BRANCH  20  24
ATOM     24  C   UNK     1       3.906  -0.545  -0.235  1.00  0.00     0.198 C 
BRANCH  24  25
ATOM     25  O   UNK     1       5.298  -0.851  -0.014  1.00  0.00    -0.398 OA
ATOM     26  H   UNK     1       5.362  -1.882   0.059  1.00  0.00     0.209 HD
ENDBRANCH  24  25
ENDBRANCH  20  24
BRANCH  21  27
ATOM     27  O   UNK     1       4.287  -3.498   1.020  1.00  0.00    -0.390 OA
ATOM     28  H   UNK     1       3.987  -4.289   0.421  1.00  0.00     0.210 HD
ENDBRANCH  21  27
BRANCH  22  29
ATOM     29  O   UNK     1       1.695  -4.385   0.214  1.00  0.00    -0.390 OA
ATOM     30  H   UNK     1       0.851  -4.929   0.468  1.00  0.00     0.210 HD
ENDBRANCH  22  29
BRANCH  23  31
ATOM     31  O   UNK     1      -0.562  -3.289   1.195  1.00  0.00    -0.388 OA
ATOM     32  H   UNK     1      -0.640  -3.322   0.164  1.00  0.00     0.210 HD
ENDBRANCH  23  31
ENDBRANCH  17  18
ENDBRANCH  15  17
ENDBRANCH  14  15
ENDBRANCH   4  13
TORSDOF 10
