MODEL 1
REMARK VINA RESULT:    -9.643      0.000      0.000
REMARK INTER + INTRA:         -12.533
REMARK INTER:                 -12.075
REMARK INTRA:                  -0.459
REMARK UNBOUND:                -0.917
REMARK  4 active torsions:
REMARK  status: ('A' for Active; 'I' for Inactive)
REMARK    1  A    between atoms: C1_1  and  C7_7 
REMARK    2  A    between atoms: C2_2  and  C13_13 
REMARK    3  A    between atoms: C4_4  and  O6_6 
REMARK    4  A    between atoms: C16_16  and  S19_19 
ROOT
HETATM    1  C1  RCX A 601      23.649   2.517  32.703  1.00  0.00     0.045 A 
HETATM    2  C2  RCX A 601      22.778   1.428  32.768  1.00  0.00     0.012 A 
HETATM    3  C3  RCX A 601      22.245   1.320  31.489  1.00  0.00     0.158 A 
HETATM    4  C4  RCX A 601      23.602   2.925  31.376  1.00  0.00     0.195 A 
HETATM    5  O5  RCX A 601      22.741   2.226  30.684  1.00  0.00    -0.299 OA
ENDROOT
BRANCH   1   6
HETATM    6  C7  RCX A 601      24.411   3.172  33.796  1.00  0.00    -0.020 A 
HETATM    7  C12 RCX A 601      25.809   3.324  33.700  1.00  0.00     0.012 A 
HETATM    8  C11 RCX A 601      26.529   3.954  34.726  1.00  0.00     0.001 A 
HETATM    9  C10 RCX A 601      25.860   4.441  35.857  1.00  0.00     0.000 A 
HETATM   10  C9  RCX A 601      24.469   4.305  35.961  1.00  0.00     0.001 A 
HETATM   11  C8  RCX A 601      23.746   3.677  34.935  1.00  0.00     0.012 A 
ENDBRANCH   1   6
BRANCH   2  12
HETATM   12  C13 RCX A 601      22.490   0.520  33.910  1.00  0.00    -0.023 A 
HETATM   13  C18 RCX A 601      21.289  -0.218  33.945  1.00  0.00     0.014 A 
HETATM   14  C17 RCX A 601      21.017  -1.094  35.007  1.00  0.00     0.024 A 
HETATM   15  C16 RCX A 601      21.949  -1.243  36.050  1.00  0.00     0.058 A 
HETATM   16  C15 RCX A 601      23.157  -0.525  36.017  1.00  0.00     0.024 A 
HETATM   17  C14 RCX A 601      23.425   0.345  34.951  1.00  0.00     0.014 A 
BRANCH  15  18
HETATM   18  S19 RCX A 601      21.616  -2.348  37.378  1.00  0.00     0.171 S 
HETATM   19  O20 RCX A 601      22.814  -2.309  38.509  1.00  0.00    -0.223 OA
HETATM   20  O21 RCX A 601      21.322  -3.880  36.837  1.00  0.00    -0.223 OA
HETATM   21  C22 RCX A 601      20.182  -1.844  38.183  1.00  0.00     0.167 C 
ENDBRANCH  15  18
ENDBRANCH   2  12
BRANCH   4  22
HETATM   22  O6  RCX A 601      24.209   4.089  30.860  1.00  0.00    -0.340 OA
HETATM   23  H6  RCX A 601      25.181   4.048  31.207  1.00  0.00     0.220 HD
ENDBRANCH   4  22
TORSDOF 4
ENDMDL
MODEL 2
REMARK VINA RESULT:    -7.447     11.887     14.706
REMARK INTER + INTRA:          -9.888
REMARK INTER:                  -9.000
REMARK INTRA:                  -0.888
REMARK UNBOUND:                -0.917
REMARK  4 active torsions:
REMARK  status: ('A' for Active; 'I' for Inactive)
REMARK    1  A    between atoms: C1_1  and  C7_7 
REMARK    2  A    between atoms: C2_2  and  C13_13 
REMARK    3  A    between atoms: C4_4  and  O6_6 
REMARK    4  A    between atoms: C16_16  and  S19_19 
ROOT
HETATM    1  C1  RCX A 601      12.808  -0.167  24.621  1.00  0.00     0.045 A 
HETATM    2  C2  RCX A 601      13.171   0.120  25.937  1.00  0.00     0.012 A 
HETATM    3  C3  RCX A 601      13.497  -1.112  26.494  1.00  0.00     0.158 A 
HETATM    4  C4  RCX A 601      13.006  -1.535  24.491  1.00  0.00     0.195 A 
HETATM    5  O5  RCX A 601      13.381  -2.079  25.620  1.00  0.00    -0.299 OA
ENDROOT
BRANCH   1   6
HETATM    6  C7  RCX A 601      12.254   0.742  23.584  1.00  0.00    -0.020 A 
HETATM    7  C12 RCX A 601      12.945   0.945  22.372  1.00  0.00     0.012 A 
HETATM    8  C11 RCX A 601      12.417   1.793  21.386  1.00  0.00     0.001 A 
HETATM    9  C10 RCX A 601      11.194   2.444  21.599  1.00  0.00     0.000 A 
HETATM   10  C9  RCX A 601      10.494   2.242  22.797  1.00  0.00     0.001 A 
HETATM   11  C8  RCX A 601      11.018   1.392  23.783  1.00  0.00     0.012 A 
ENDBRANCH   1   6
BRANCH   2  12
HETATM   12  C13 RCX A 601      13.258   1.435  26.626  1.00  0.00    -0.023 A 
HETATM   13  C18 RCX A 601      12.110   2.011  27.208  1.00  0.00     0.014 A 
HETATM   14  C17 RCX A 601      12.187   3.242  27.878  1.00  0.00     0.024 A 
HETATM   15  C16 RCX A 601      13.418   3.912  27.975  1.00  0.00     0.058 A 
HETATM   16  C15 RCX A 601      14.574   3.340  27.412  1.00  0.00     0.024 A 
HETATM   17  C14 RCX A 601      14.491   2.109  26.747  1.00  0.00     0.014 A 
BRANCH  15  18
HETATM   18  S19 RCX A 601      13.520   5.450  28.823  1.00  0.00     0.171 S 
HETATM   19  O20 RCX A 601      12.440   6.541  28.224  1.00  0.00    -0.223 OA
HETATM   20  O21 RCX A 601      15.061   6.042  28.831  1.00  0.00    -0.223 OA
HETATM   21  C22 RCX A 601      13.093   5.212  30.472  1.00  0.00     0.167 C 
ENDBRANCH  15  18
ENDBRANCH   2  12
BRANCH   4  22
HETATM   22  O6  RCX A 601      12.634  -2.311  23.374  1.00  0.00    -0.340 OA
HETATM   23  H6  RCX A 601      12.391  -1.617  22.648  1.00  0.00     0.220 HD
ENDBRANCH   4  22
TORSDOF 4
ENDMDL
MODEL 3
REMARK VINA RESULT:    -7.243      1.670      4.010
REMARK INTER + INTRA:          -9.642
REMARK INTER:                  -9.262
REMARK INTRA:                  -0.380
REMARK UNBOUND:                -0.917
REMARK  4 active torsions:
REMARK  status: ('A' for Active; 'I' for Inactive)
REMARK    1  A    between atoms: C1_1  and  C7_7 
REMARK    2  A    between atoms: C2_2  and  C13_13 
REMARK    3  A    between atoms: C4_4  and  O6_6 
REMARK    4  A    between atoms: C16_16  and  S19_19 
ROOT
HETATM    1  C1  RCX A 601      23.952   2.876  31.931  1.00  0.00     0.045 A 
HETATM    2  C2  RCX A 601      24.302   2.304  33.155  1.00  0.00     0.012 A 
HETATM    3  C3  RCX A 601      25.474   2.952  33.530  1.00  0.00     0.158 A 
HETATM    4  C4  RCX A 601      24.914   3.854  31.712  1.00  0.00     0.195 A 
HETATM    5  O5  RCX A 601      25.822   3.859  32.652  1.00  0.00    -0.299 OA
ENDROOT
BRANCH   1   6
HETATM    6  C7  RCX A 601      22.856   2.500  31.002  1.00  0.00    -0.020 A 
HETATM    7  C12 RCX A 601      21.530   2.900  31.265  1.00  0.00     0.012 A 
HETATM    8  C11 RCX A 601      20.495   2.557  30.382  1.00  0.00     0.001 A 
HETATM    9  C10 RCX A 601      20.773   1.813  29.227  1.00  0.00     0.000 A 
HETATM   10  C9  RCX A 601      22.089   1.416  28.951  1.00  0.00     0.001 A 
HETATM   11  C8  RCX A 601      23.127   1.761  29.830  1.00  0.00     0.012 A 
ENDBRANCH   1   6
BRANCH   2  12
HETATM   12  C13 RCX A 601      23.589   1.270  33.950  1.00  0.00    -0.023 A 
HETATM   13  C18 RCX A 601      24.085   0.871  35.208  1.00  0.00     0.014 A 
HETATM   14  C17 RCX A 601      23.408  -0.088  35.975  1.00  0.00     0.024 A 
HETATM   15  C16 RCX A 601      22.219  -0.662  35.491  1.00  0.00     0.058 A 
HETATM   16  C15 RCX A 601      21.704  -0.260  34.245  1.00  0.00     0.024 A 
HETATM   17  C14 RCX A 601      22.384   0.701  33.485  1.00  0.00     0.014 A 
BRANCH  15  18
HETATM   18  S19 RCX A 601      21.361  -1.857  36.455  1.00  0.00     0.171 S 
HETATM   19  O20 RCX A 601      21.719  -3.391  35.971  1.00  0.00    -0.223 OA
HETATM   20  O21 RCX A 601      19.735  -1.575  36.470  1.00  0.00    -0.223 OA
HETATM   21  C22 RCX A 601      21.880  -1.739  38.090  1.00  0.00     0.167 C 
ENDBRANCH  15  18
ENDBRANCH   2  12
BRANCH   4  22
HETATM   22  O6  RCX A 601      25.060   4.603  30.526  1.00  0.00    -0.340 OA
HETATM   23  H6  RCX A 601      25.320   3.903  29.811  1.00  0.00     0.220 HD
ENDBRANCH   4  22
TORSDOF 4
ENDMDL
MODEL 4
REMARK VINA RESULT:    -7.011     11.671     14.558
REMARK INTER + INTRA:          -9.362
REMARK INTER:                  -8.454
REMARK INTRA:                  -0.909
REMARK UNBOUND:                -0.917
REMARK  4 active torsions:
REMARK  status: ('A' for Active; 'I' for Inactive)
REMARK    1  A    between atoms: C1_1  and  C7_7 
REMARK    2  A    between atoms: C2_2  and  C13_13 
REMARK    3  A    between atoms: C4_4  and  O6_6 
REMARK    4  A    between atoms: C16_16  and  S19_19 
ROOT
HETATM    1  C1  RCX A 601      11.549  -1.627  25.073  1.00  0.00     0.045 A 
HETATM    2  C2  RCX A 601      12.814  -1.074  24.868  1.00  0.00     0.012 A 
HETATM    3  C3  RCX A 601      13.276  -1.665  23.697  1.00  0.00     0.158 A 
HETATM    4  C4  RCX A 601      11.344  -2.454  23.976  1.00  0.00     0.195 A 
HETATM    5  O5  RCX A 601      12.391  -2.488  23.193  1.00  0.00    -0.299 OA
ENDROOT
BRANCH   1   6
HETATM    6  C7  RCX A 601      10.630  -1.458  26.228  1.00  0.00    -0.020 A 
HETATM    7  C12 RCX A 601      10.936  -2.042  27.474  1.00  0.00     0.012 A 
HETATM    8  C11 RCX A 601      10.075  -1.873  28.569  1.00  0.00     0.001 A 
HETATM    9  C10 RCX A 601       8.902  -1.118  28.432  1.00  0.00     0.000 A 
HETATM   10  C9  RCX A 601       8.591  -0.525  27.201  1.00  0.00     0.001 A 
HETATM   11  C8  RCX A 601       9.452  -0.690  26.104  1.00  0.00     0.012 A 
ENDBRANCH   1   6
BRANCH   2  12
HETATM   12  C13 RCX A 601      13.530  -0.041  25.662  1.00  0.00    -0.023 A 
HETATM   13  C18 RCX A 601      12.862   1.130  26.074  1.00  0.00     0.014 A 
HETATM   14  C17 RCX A 601      13.523   2.101  26.842  1.00  0.00     0.024 A 
HETATM   15  C16 RCX A 601      14.867   1.909  27.209  1.00  0.00     0.058 A 
HETATM   16  C15 RCX A 601      15.539   0.737  26.819  1.00  0.00     0.024 A 
HETATM   17  C14 RCX A 601      14.872  -0.230  26.055  1.00  0.00     0.014 A 
BRANCH  15  18
HETATM   18  S19 RCX A 601      15.696   3.119  28.181  1.00  0.00     0.171 S 
HETATM   19  O20 RCX A 601      15.897   4.526  27.348  1.00  0.00    -0.223 OA
HETATM   20  O21 RCX A 601      17.121   2.544  28.784  1.00  0.00    -0.223 OA
HETATM   21  C22 RCX A 601      14.724   3.507  29.546  1.00  0.00     0.167 C 
ENDBRANCH  15  18
ENDBRANCH   2  12
BRANCH   4  22
HETATM   22  O6  RCX A 601      10.260  -3.342  23.816  1.00  0.00    -0.340 OA
HETATM   23  H6  RCX A 601      10.441  -3.807  22.911  1.00  0.00     0.220 HD
ENDBRANCH   4  22
TORSDOF 4
ENDMDL
MODEL 5
REMARK VINA RESULT:    -6.996     11.938     14.416
REMARK INTER + INTRA:          -9.344
REMARK INTER:                  -8.403
REMARK INTRA:                  -0.941
REMARK UNBOUND:                -0.917
REMARK  4 active torsions:
REMARK  status: ('A' for Active; 'I' for Inactive)
REMARK    1  A    between atoms: C1_1  and  C7_7 
REMARK    2  A    between atoms: C2_2  and  C13_13 
REMARK    3  A    between atoms: C4_4  and  O6_6 
REMARK    4  A    between atoms: C16_16  and  S19_19 
ROOT
HETATM    1  C1  RCX A 601      10.369   0.896  26.019  1.00  0.00     0.045 A 
HETATM    2  C2  RCX A 601      10.543   2.223  26.415  1.00  0.00     0.012 A 
HETATM    3  C3  RCX A 601       9.777   2.965  25.524  1.00  0.00     0.158 A 
HETATM    4  C4  RCX A 601       9.468   0.960  24.963  1.00  0.00     0.195 A 
HETATM    5  O5  RCX A 601       9.157   2.194  24.666  1.00  0.00    -0.299 OA
ENDROOT
BRANCH   1   6
HETATM    6  C7  RCX A 601      11.037  -0.329  26.529  1.00  0.00    -0.020 A 
HETATM    7  C12 RCX A 601      12.260  -0.758  25.976  1.00  0.00     0.012 A 
HETATM    8  C11 RCX A 601      12.898  -1.907  26.465  1.00  0.00     0.001 A 
HETATM    9  C10 RCX A 601      12.323  -2.638  27.514  1.00  0.00     0.000 A 
HETATM   10  C9  RCX A 601      11.111  -2.217  28.078  1.00  0.00     0.001 A 
HETATM   11  C8  RCX A 601      10.472  -1.066  27.592  1.00  0.00     0.012 A 
ENDBRANCH   1   6
BRANCH   2  12
HETATM   12  C13 RCX A 601      11.320   2.770  27.558  1.00  0.00    -0.023 A 
HETATM   13  C18 RCX A 601      12.714   2.567  27.634  1.00  0.00     0.014 A 
HETATM   14  C17 RCX A 601      13.459   3.098  28.698  1.00  0.00     0.024 A 
HETATM   15  C16 RCX A 601      12.816   3.842  29.702  1.00  0.00     0.058 A 
HETATM   16  C15 RCX A 601      11.429   4.065  29.629  1.00  0.00     0.024 A 
HETATM   17  C14 RCX A 601      10.691   3.535  28.562  1.00  0.00     0.014 A 
BRANCH  15  18
HETATM   18  S19 RCX A 601      13.748   4.518  31.032  1.00  0.00     0.171 S 
HETATM   19  O20 RCX A 601      14.730   5.739  30.521  1.00  0.00    -0.223 OA
HETATM   20  O21 RCX A 601      14.583   3.350  31.847  1.00  0.00    -0.223 OA
HETATM   21  C22 RCX A 601      12.671   5.219  32.175  1.00  0.00     0.167 C 
ENDBRANCH  15  18
ENDBRANCH   2  12
BRANCH   4  22
HETATM   22  O6  RCX A 601       9.097  -0.125  24.141  1.00  0.00    -0.340 OA
HETATM   23  H6  RCX A 601       9.995  -0.551  23.859  1.00  0.00     0.220 HD
ENDBRANCH   4  22
TORSDOF 4
ENDMDL
MODEL 6
REMARK VINA RESULT:    -6.992     12.034     14.923
REMARK INTER + INTRA:          -9.340
REMARK INTER:                  -8.362
REMARK INTRA:                  -0.978
REMARK UNBOUND:                -0.917
REMARK  4 active torsions:
REMARK  status: ('A' for Active; 'I' for Inactive)
REMARK    1  A    between atoms: C1_1  and  C7_7 
REMARK    2  A    between atoms: C2_2  and  C13_13 
REMARK    3  A    between atoms: C4_4  and  O6_6 
REMARK    4  A    between atoms: C16_16  and  S19_19 
ROOT
HETATM    1  C1  RCX A 601      12.047  -0.658  24.162  1.00  0.00     0.045 A 
HETATM    2  C2  RCX A 601      12.527  -0.582  25.470  1.00  0.00     0.012 A 
HETATM    3  C3  RCX A 601      12.443  -1.882  25.957  1.00  0.00     0.158 A 
HETATM    4  C4  RCX A 601      11.774  -2.006  23.964  1.00  0.00     0.195 A 
HETATM    5  O5  RCX A 601      11.983  -2.706  25.049  1.00  0.00    -0.299 OA
ENDROOT
BRANCH   1   6
HETATM    6  C7  RCX A 601      11.794   0.439  23.192  1.00  0.00    -0.020 A 
HETATM    7  C12 RCX A 601      10.690   1.299  23.361  1.00  0.00     0.012 A 
HETATM    8  C11 RCX A 601      10.456   2.343  22.454  1.00  0.00     0.001 A 
HETATM    9  C10 RCX A 601      11.324   2.541  21.370  1.00  0.00     0.000 A 
HETATM   10  C9  RCX A 601      12.429   1.697  21.196  1.00  0.00     0.001 A 
HETATM   11  C8  RCX A 601      12.667   0.653  22.104  1.00  0.00     0.012 A 
ENDBRANCH   1   6
BRANCH   2  12
HETATM   12  C13 RCX A 601      13.069   0.589  26.208  1.00  0.00    -0.023 A 
HETATM   13  C18 RCX A 601      12.194   1.535  26.781  1.00  0.00     0.014 A 
HETATM   14  C17 RCX A 601      12.696   2.632  27.498  1.00  0.00     0.024 A 
HETATM   15  C16 RCX A 601      14.084   2.796  27.651  1.00  0.00     0.058 A 
HETATM   16  C15 RCX A 601      14.965   1.850  27.098  1.00  0.00     0.024 A 
HETATM   17  C14 RCX A 601      14.458   0.754  26.386  1.00  0.00     0.014 A 
BRANCH  15  18
HETATM   18  S19 RCX A 601      14.715   4.165  28.558  1.00  0.00     0.171 S 
HETATM   19  O20 RCX A 601      16.050   4.804  27.833  1.00  0.00    -0.223 OA
HETATM   20  O21 RCX A 601      14.993   3.774  30.137  1.00  0.00    -0.223 OA
HETATM   21  C22 RCX A 601      13.537   5.418  28.578  1.00  0.00     0.167 C 
ENDBRANCH  15  18
ENDBRANCH   2  12
BRANCH   4  22
HETATM   22  O6  RCX A 601      11.130  -2.551  22.835  1.00  0.00    -0.340 OA
HETATM   23  H6  RCX A 601      11.817  -2.445  22.071  1.00  0.00     0.220 HD
ENDBRANCH   4  22
TORSDOF 4
ENDMDL
MODEL 7
REMARK VINA RESULT:    -6.988     10.843     13.481
REMARK INTER + INTRA:          -9.335
REMARK INTER:                  -8.517
REMARK INTRA:                  -0.818
REMARK UNBOUND:                -0.917
REMARK  4 active torsions:
REMARK  status: ('A' for Active; 'I' for Inactive)
REMARK    1  A    between atoms: C1_1  and  C7_7 
REMARK    2  A    between atoms: C2_2  and  C13_13 
REMARK    3  A    between atoms: C4_4  and  O6_6 
REMARK    4  A    between atoms: C16_16  and  S19_19 
ROOT
HETATM    1  C1  RCX A 601      12.840   0.234  25.691  1.00  0.00     0.045 A 
HETATM    2  C2  RCX A 601      13.631   1.343  25.991  1.00  0.00     0.012 A 
HETATM    3  C3  RCX A 601      14.379   1.571  24.841  1.00  0.00     0.158 A 
HETATM    4  C4  RCX A 601      13.142  -0.066  24.369  1.00  0.00     0.195 A 
HETATM    5  O5  RCX A 601      14.078   0.715  23.896  1.00  0.00    -0.299 OA
ENDROOT
BRANCH   1   6
HETATM    6  C7  RCX A 601      11.927  -0.533  26.578  1.00  0.00    -0.020 A 
HETATM    7  C12 RCX A 601      12.354  -1.740  27.168  1.00  0.00     0.012 A 
HETATM    8  C11 RCX A 601      11.497  -2.459  28.015  1.00  0.00     0.001 A 
HETATM    9  C10 RCX A 601      10.208  -1.979  28.285  1.00  0.00     0.000 A 
HETATM   10  C9  RCX A 601       9.776  -0.775  27.711  1.00  0.00     0.001 A 
HETATM   11  C8  RCX A 601      10.631  -0.053  26.865  1.00  0.00     0.012 A 
ENDBRANCH   1   6
BRANCH   2  12
HETATM   12  C13 RCX A 601      13.667   2.167  27.229  1.00  0.00    -0.023 A 
HETATM   13  C18 RCX A 601      12.479   2.712  27.755  1.00  0.00     0.014 A 
HETATM   14  C17 RCX A 601      12.499   3.473  28.934  1.00  0.00     0.024 A 
HETATM   15  C16 RCX A 601      13.715   3.697  29.603  1.00  0.00     0.058 A 
HETATM   16  C15 RCX A 601      14.906   3.144  29.096  1.00  0.00     0.024 A 
HETATM   17  C14 RCX A 601      14.878   2.382  27.921  1.00  0.00     0.014 A 
BRANCH  15  18
HETATM   18  S19 RCX A 601      13.744   4.642  31.087  1.00  0.00     0.171 S 
HETATM   19  O20 RCX A 601      14.890   5.825  31.027  1.00  0.00    -0.223 OA
HETATM   20  O21 RCX A 601      13.913   3.681  32.418  1.00  0.00    -0.223 OA
HETATM   21  C22 RCX A 601      12.236   5.447  31.270  1.00  0.00     0.167 C 
ENDBRANCH  15  18
ENDBRANCH   2  12
BRANCH   4  22
HETATM   22  O6  RCX A 601      12.694  -1.205  23.668  1.00  0.00    -0.340 OA
HETATM   23  H6  RCX A 601      13.517  -1.513  23.124  1.00  0.00     0.220 HD
ENDBRANCH   4  22
TORSDOF 4
ENDMDL
MODEL 8
REMARK VINA RESULT:    -6.713     11.470     13.010
REMARK INTER + INTRA:          -9.004
REMARK INTER:                  -8.346
REMARK INTRA:                  -0.658
REMARK UNBOUND:                -0.917
REMARK  4 active torsions:
REMARK  status: ('A' for Active; 'I' for Inactive)
REMARK    1  A    between atoms: C1_1  and  C7_7 
REMARK    2  A    between atoms: C2_2  and  C13_13 
REMARK    3  A    between atoms: C4_4  and  O6_6 
REMARK    4  A    between atoms: C16_16  and  S19_19 
ROOT
HETATM    1  C1  RCX A 601      13.818   4.416  28.683  1.00  0.00     0.045 A 
HETATM    2  C2  RCX A 601      14.274   3.492  27.741  1.00  0.00     0.012 A 
HETATM    3  C3  RCX A 601      15.465   4.027  27.264  1.00  0.00     0.158 A 
HETATM    4  C4  RCX A 601      14.806   5.391  28.727  1.00  0.00     0.195 A 
HETATM    5  O5  RCX A 601      15.754   5.159  27.856  1.00  0.00    -0.299 OA
ENDROOT
BRANCH   1   6
HETATM    6  C7  RCX A 601      12.535   4.432  29.433  1.00  0.00    -0.020 A 
HETATM    7  C12 RCX A 601      12.500   4.065  30.793  1.00  0.00     0.012 A 
HETATM    8  C11 RCX A 601      11.292   4.091  31.506  1.00  0.00     0.001 A 
HETATM    9  C10 RCX A 601      10.108   4.488  30.869  1.00  0.00     0.000 A 
HETATM   10  C9  RCX A 601      10.132   4.864  29.519  1.00  0.00     0.001 A 
HETATM   11  C8  RCX A 601      11.339   4.841  28.805  1.00  0.00     0.012 A 
ENDBRANCH   1   6
BRANCH   2  12
HETATM   12  C13 RCX A 601      13.685   2.187  27.340  1.00  0.00    -0.023 A 
HETATM   13  C18 RCX A 601      12.295   2.067  27.133  1.00  0.00     0.014 A 
HETATM   14  C17 RCX A 601      11.732   0.846  26.734  1.00  0.00     0.024 A 
HETATM   15  C16 RCX A 601      12.558  -0.275  26.534  1.00  0.00     0.058 A 
HETATM   16  C15 RCX A 601      13.947  -0.163  26.720  1.00  0.00     0.024 A 
HETATM   17  C14 RCX A 601      14.504   1.061  27.116  1.00  0.00     0.014 A 
BRANCH  15  18
HETATM   18  S19 RCX A 601      11.857  -1.805  26.022  1.00  0.00     0.171 S 
HETATM   19  O20 RCX A 601      10.219  -1.809  26.205  1.00  0.00    -0.223 OA
HETATM   20  O21 RCX A 601      12.570  -3.086  26.780  1.00  0.00    -0.223 OA
HETATM   21  C22 RCX A 601      12.149  -2.024  24.342  1.00  0.00     0.167 C 
ENDBRANCH  15  18
ENDBRANCH   2  12
BRANCH   4  22
HETATM   22  O6  RCX A 601      14.719   6.609  29.432  1.00  0.00    -0.340 OA
HETATM   23  H6  RCX A 601      15.049   6.379  30.384  1.00  0.00     0.220 HD
ENDBRANCH   4  22
TORSDOF 4
ENDMDL
